LAMMPS (31 Aug 2021)
# Define variables
# Starting temperature:
variable T equal 1
# Number of molecules:
variable N equal 500
# Density:
variable rho equal 0.01
# Length of sides of cubic box
variable L equal (500/0.01)^(1/3)
# How much heat to add per timestep
variable eFlux equal 1
# Spring bond (0) or rigid bond (1)
variable rigidbond equal 0

# Use Lennard-Jones units, periodic boundaries and atomic model
units lj
boundary p p p
atom_style full

# Define the space and put atoms in
dimension 3
region simbox block 0 $L 0 $L 0 $L
region simbox block 0 36.8403149864039 0 $L 0 $L
region simbox block 0 36.8403149864039 0 36.8403149864039 0 $L
region simbox block 0 36.8403149864039 0 36.8403149864039 0 36.8403149864039
create_box 1 simbox bond/types 1 extra/bond/per/atom 1
Created orthogonal box = (0.0000000 0.0000000 0.0000000) to (36.840315 36.840315 36.840315)

# Define properties of the molecules
bond_style class2
bond_coeff 1 0.7 35.0 -40.0 59.0
molecule LJdiat diat.molecule
Read molecule template LJdiat:
  1 molecules
  0 fragments
  2 atoms with max type 1
  1 bonds with max type 1
  0 angles with max type 0
  0 dihedrals with max type 0
  0 impropers with max type 0
create_atoms 0 random $N 12345 simbox mol LJdiat 1234
create_atoms 0 random 500 12345 simbox mol LJdiat 1234
Created 1000 atoms
mass 1 1.0
velocity all create $T 87287
velocity all create 1 87287
pair_style lj/class2 2.5
pair_coeff 1 1 1.0 1.0 2.5

#make sure no explosion happens
minimize 1e-4 1e-4 100 100
  update every 1 steps, delay 0 steps, check yes
Step Temp E_pair E_mol TotEng Press
0            1    120.44392 7.4066767e-29    121.94242    7.4197513
Loop time of 0.0470729 on 1 procs for 51 steps with 1000 atoms

Minimization stats:
  Stopping criterion = max force evaluations
  Energy initial, next-to-last, final =
  Force two-norm initial, final = 2905930.1 29.827091
  Force max component initial, final = 1137302.3 5.7773791
  Final line search alpha, max atom move = 0.018269592 0.10555036
  Iterations, force evaluations = 51 100

#Make the N-N bond rigid if rigidbond=1
#timestep 2

# Speed up simulation with neighbour lists
neighbor 0.3 bin
neigh_modify every 1 delay 0 check yes

# Define thermodynamic ensemble for thermalization
fix nvt all nvt temp $T $T 1
fix nvt all nvt temp 1 $T 1
fix nvt all nvt temp 1 1 1

#Thermalization run
run             100000
Step Temp E_pair E_mol TotEng Press
51            1  -0.39275636 0.0010029383    1.1067466  0.019206565
Loop time of 40.5769 on 1 procs for 100000 steps with 1000 atoms

# Define thermodynamic ensemble for long run
unfix nvt
fix nve all nve

# Start heat addition and run to stabilize
fix heat all heat 1 1 region simbox
run 1000
Step Temp E_pair E_mol TotEng Press
100051   0.92972362   -2.0504202   0.29590509  -0.36132423 -0.001468548
Loop time of 0.433448 on 1 procs for 1000 steps with 1000 atoms

#Define frequency of thermodynamic output and trajectory dump and start production run
thermo 100
dump 1 all custom 100 dump.lammpstrj id x y z vx vy vz
run 100000
Step Temp E_pair E_mol TotEng Press
101051   0.96333694   -2.1015086   0.29740623  -0.36054194 0.00017834123
Averages over the last 458 of 916 rows, steps 146800 to 192500:
Temp E_pair E_mol TotEng Press
1.2217 -2.20684 0.337666 -0.0384468 0.00532018
